gem5 Simulator System.  http://gem5.org
gem5 is copyrighted software; use the --copyright option for details.

gem5 compiled May 17 2024 21:17:27
gem5 started May 17 2024 21:28:45
gem5 executing on 4457937c4fa9, pid 267845
command line: /code/gem5-docker/build/X86/gem5.opt --outdir=/code/gem5-docker/m5out_STT-ST-Futuristic-Found_core5 /code/gem5-docker/configs/example/se.py -c debug_STT-ST-Futuristic-Found_core5/one/test_case_0_3960400063.out --cpu-type=DerivO3CPU --l1d_size=32kB --l1i_size=32kB --l2cache --ruby --dump-caches --num-cpu=1 --needsTSO=1 --STT=1 --implicit_channel=1 --threat_model=Futuristic --rel-max-tick=5000000 --checkpoint-dir=/code/gem5-docker/checkpoint_STT-ST-Futuristic-Found_core5 --checkpoint-at-end

info: Standard input is not a terminal, disabling listeners.
**********
**********
Global frequency set at 1000000000000 ticks per second
Info: simulation uses threatModel: Futuristic; needsTSO=1
applySTT = 1, implicit_channel = 1, ifPrintROB = 0, moreTransmitInsts = 0
**** REAL SIMULATION ****
Exiting @ tick 595500 because exiting with last active thread context
Writing Micro-checkpoint
Dumping the caches
