
---------- Begin Simulation Statistics ----------
sim_seconds                                  0.000001                       # Number of seconds simulated
sim_ticks                                      595500                       # Number of ticks simulated
final_tick                                     595500                       # Number of ticks from beginning of simulation (restored from checkpoints and never reset)
sim_freq                                 1000000000000                       # Frequency of simulated ticks
host_inst_rate                                  10400                       # Simulator instruction rate (inst/s)
host_op_rate                                    21923                       # Simulator op (including micro ops) rate (op/s)
host_tick_rate                               86860659                       # Simulator tick rate (ticks/s)
host_mem_usage                                 718004                       # Number of bytes of host memory used
host_seconds                                     0.01                       # Real time elapsed on the host
sim_insts                                          71                       # Number of instructions simulated
sim_ops                                           150                       # Number of ops (including micro ops) simulated
system.voltage_domain.voltage                       1                       # Voltage in Volts
system.clk_domain.clock                          1000                       # Clock period in ticks
system.mem_ctrls.pwrStateResidencyTicks::UNDEFINED       595500                       # Cumulative time (in ticks) in various power states
system.mem_ctrls.bytes_read::ruby.dir_cntrl0         1024                       # Number of bytes read from this memory
system.mem_ctrls.bytes_read::total               1024                       # Number of bytes read from this memory
system.mem_ctrls.num_reads::ruby.dir_cntrl0           16                       # Number of read requests responded to by this memory
system.mem_ctrls.num_reads::total                  16                       # Number of read requests responded to by this memory
system.mem_ctrls.bw_read::ruby.dir_cntrl0   1719563392                       # Total read bandwidth from this memory (bytes/s)
system.mem_ctrls.bw_read::total            1719563392                       # Total read bandwidth from this memory (bytes/s)
system.mem_ctrls.bw_total::ruby.dir_cntrl0   1719563392                       # Total bandwidth to/from this memory (bytes/s)
system.mem_ctrls.bw_total::total           1719563392                       # Total bandwidth to/from this memory (bytes/s)
system.mem_ctrls.readReqs                          16                       # Number of read requests accepted
system.mem_ctrls.writeReqs                          0                       # Number of write requests accepted
system.mem_ctrls.readBursts                        16                       # Number of DRAM read bursts, including those serviced by the write queue
system.mem_ctrls.writeBursts                        0                       # Number of DRAM write bursts, including those merged in the write queue
system.mem_ctrls.bytesReadDRAM                   1024                       # Total number of bytes read from DRAM
system.mem_ctrls.bytesReadWrQ                       0                       # Total number of bytes read from write queue
system.mem_ctrls.bytesWritten                       0                       # Total number of bytes written to DRAM
system.mem_ctrls.bytesReadSys                    1024                       # Total read bytes from the system interface side
system.mem_ctrls.bytesWrittenSys                    0                       # Total written bytes from the system interface side
system.mem_ctrls.servicedByWrQ                      0                       # Number of DRAM read bursts serviced by the write queue
system.mem_ctrls.mergedWrBursts                     0                       # Number of DRAM write bursts merged with an existing one
system.mem_ctrls.neitherReadNorWriteReqs            0                       # Number of requests that are neither read nor write
system.mem_ctrls.perBankRdBursts::0                 9                       # Per bank write bursts
system.mem_ctrls.perBankRdBursts::1                 3                       # Per bank write bursts
system.mem_ctrls.perBankRdBursts::2                 1                       # Per bank write bursts
system.mem_ctrls.perBankRdBursts::3                 3                       # Per bank write bursts
system.mem_ctrls.perBankRdBursts::4                 0                       # Per bank write bursts
system.mem_ctrls.perBankRdBursts::5                 0                       # Per bank write bursts
system.mem_ctrls.perBankRdBursts::6                 0                       # Per bank write bursts
system.mem_ctrls.perBankRdBursts::7                 0                       # Per bank write bursts
system.mem_ctrls.perBankRdBursts::8                 0                       # Per bank write bursts
system.mem_ctrls.perBankRdBursts::9                 0                       # Per bank write bursts
system.mem_ctrls.perBankRdBursts::10                0                       # Per bank write bursts
system.mem_ctrls.perBankRdBursts::11                0                       # Per bank write bursts
system.mem_ctrls.perBankRdBursts::12                0                       # Per bank write bursts
system.mem_ctrls.perBankRdBursts::13                0                       # Per bank write bursts
system.mem_ctrls.perBankRdBursts::14                0                       # Per bank write bursts
system.mem_ctrls.perBankRdBursts::15                0                       # Per bank write bursts
system.mem_ctrls.perBankWrBursts::0                 0                       # Per bank write bursts
system.mem_ctrls.perBankWrBursts::1                 0                       # Per bank write bursts
system.mem_ctrls.perBankWrBursts::2                 0                       # Per bank write bursts
system.mem_ctrls.perBankWrBursts::3                 0                       # Per bank write bursts
system.mem_ctrls.perBankWrBursts::4                 0                       # Per bank write bursts
system.mem_ctrls.perBankWrBursts::5                 0                       # Per bank write bursts
system.mem_ctrls.perBankWrBursts::6                 0                       # Per bank write bursts
system.mem_ctrls.perBankWrBursts::7                 0                       # Per bank write bursts
system.mem_ctrls.perBankWrBursts::8                 0                       # Per bank write bursts
system.mem_ctrls.perBankWrBursts::9                 0                       # Per bank write bursts
system.mem_ctrls.perBankWrBursts::10                0                       # Per bank write bursts
system.mem_ctrls.perBankWrBursts::11                0                       # Per bank write bursts
system.mem_ctrls.perBankWrBursts::12                0                       # Per bank write bursts
system.mem_ctrls.perBankWrBursts::13                0                       # Per bank write bursts
system.mem_ctrls.perBankWrBursts::14                0                       # Per bank write bursts
system.mem_ctrls.perBankWrBursts::15                0                       # Per bank write bursts
system.mem_ctrls.numRdRetry                         0                       # Number of times read queue was full causing retry
system.mem_ctrls.numWrRetry                         0                       # Number of times write queue was full causing retry
system.mem_ctrls.totGap                        533000                       # Total gap between requests
system.mem_ctrls.readPktSize::0                     0                       # Read request sizes (log2)
system.mem_ctrls.readPktSize::1                     0                       # Read request sizes (log2)
system.mem_ctrls.readPktSize::2                     0                       # Read request sizes (log2)
system.mem_ctrls.readPktSize::3                     0                       # Read request sizes (log2)
system.mem_ctrls.readPktSize::4                     0                       # Read request sizes (log2)
system.mem_ctrls.readPktSize::5                     0                       # Read request sizes (log2)
system.mem_ctrls.readPktSize::6                    16                       # Read request sizes (log2)
system.mem_ctrls.writePktSize::0                    0                       # Write request sizes (log2)
system.mem_ctrls.writePktSize::1                    0                       # Write request sizes (log2)
system.mem_ctrls.writePktSize::2                    0                       # Write request sizes (log2)
system.mem_ctrls.writePktSize::3                    0                       # Write request sizes (log2)
system.mem_ctrls.writePktSize::4                    0                       # Write request sizes (log2)
system.mem_ctrls.writePktSize::5                    0                       # Write request sizes (log2)
system.mem_ctrls.writePktSize::6                    0                       # Write request sizes (log2)
system.mem_ctrls.rdQLenPdf::0                      10                       # What read queue length does an incoming req see
system.mem_ctrls.rdQLenPdf::1                       5                       # What read queue length does an incoming req see
system.mem_ctrls.rdQLenPdf::2                       1                       # What read queue length does an incoming req see
system.mem_ctrls.rdQLenPdf::3                       0                       # What read queue length does an incoming req see
system.mem_ctrls.rdQLenPdf::4                       0                       # What read queue length does an incoming req see
system.mem_ctrls.rdQLenPdf::5                       0                       # What read queue length does an incoming req see
system.mem_ctrls.rdQLenPdf::6                       0                       # What read queue length does an incoming req see
system.mem_ctrls.rdQLenPdf::7                       0                       # What read queue length does an incoming req see
system.mem_ctrls.rdQLenPdf::8                       0                       # What read queue length does an incoming req see
system.mem_ctrls.rdQLenPdf::9                       0                       # What read queue length does an incoming req see
system.mem_ctrls.rdQLenPdf::10                      0                       # What read queue length does an incoming req see
system.mem_ctrls.rdQLenPdf::11                      0                       # What read queue length does an incoming req see
system.mem_ctrls.rdQLenPdf::12                      0                       # What read queue length does an incoming req see
system.mem_ctrls.rdQLenPdf::13                      0                       # What read queue length does an incoming req see
system.mem_ctrls.rdQLenPdf::14                      0                       # What read queue length does an incoming req see
system.mem_ctrls.rdQLenPdf::15                      0                       # What read queue length does an incoming req see
system.mem_ctrls.rdQLenPdf::16                      0                       # What read queue length does an incoming req see
system.mem_ctrls.rdQLenPdf::17                      0                       # What read queue length does an incoming req see
system.mem_ctrls.rdQLenPdf::18                      0                       # What read queue length does an incoming req see
system.mem_ctrls.rdQLenPdf::19                      0                       # What read queue length does an incoming req see
system.mem_ctrls.rdQLenPdf::20                      0                       # What read queue length does an incoming req see
system.mem_ctrls.rdQLenPdf::21                      0                       # What read queue length does an incoming req see
system.mem_ctrls.rdQLenPdf::22                      0                       # What read queue length does an incoming req see
system.mem_ctrls.rdQLenPdf::23                      0                       # What read queue length does an incoming req see
system.mem_ctrls.rdQLenPdf::24                      0                       # What read queue length does an incoming req see
system.mem_ctrls.rdQLenPdf::25                      0                       # What read queue length does an incoming req see
system.mem_ctrls.rdQLenPdf::26                      0                       # What read queue length does an incoming req see
system.mem_ctrls.rdQLenPdf::27                      0                       # What read queue length does an incoming req see
system.mem_ctrls.rdQLenPdf::28                      0                       # What read queue length does an incoming req see
system.mem_ctrls.rdQLenPdf::29                      0                       # What read queue length does an incoming req see
system.mem_ctrls.rdQLenPdf::30                      0                       # What read queue length does an incoming req see
system.mem_ctrls.rdQLenPdf::31                      0                       # What read queue length does an incoming req see
system.mem_ctrls.wrQLenPdf::0                       0                       # What write queue length does an incoming req see
system.mem_ctrls.wrQLenPdf::1                       0                       # What write queue length does an incoming req see
system.mem_ctrls.wrQLenPdf::2                       0                       # What write queue length does an incoming req see
system.mem_ctrls.wrQLenPdf::3                       0                       # What write queue length does an incoming req see
system.mem_ctrls.wrQLenPdf::4                       0                       # What write queue length does an incoming req see
system.mem_ctrls.wrQLenPdf::5                       0                       # What write queue length does an incoming req see
system.mem_ctrls.wrQLenPdf::6                       0                       # What write queue length does an incoming req see
system.mem_ctrls.wrQLenPdf::7                       0                       # What write queue length does an incoming req see
system.mem_ctrls.wrQLenPdf::8                       0                       # What write queue length does an incoming req see
system.mem_ctrls.wrQLenPdf::9                       0                       # What write queue length does an incoming req see
system.mem_ctrls.wrQLenPdf::10                      0                       # What write queue length does an incoming req see
system.mem_ctrls.wrQLenPdf::11                      0                       # What write queue length does an incoming req see
system.mem_ctrls.wrQLenPdf::12                      0                       # What write queue length does an incoming req see
system.mem_ctrls.wrQLenPdf::13                      0                       # What write queue length does an incoming req see
system.mem_ctrls.wrQLenPdf::14                      0                       # What write queue length does an incoming req see
system.mem_ctrls.wrQLenPdf::15                      0                       # What write queue length does an incoming req see
system.mem_ctrls.wrQLenPdf::16                      0                       # What write queue length does an incoming req see
system.mem_ctrls.wrQLenPdf::17                      0                       # What write queue length does an incoming req see
system.mem_ctrls.wrQLenPdf::18                      0                       # What write queue length does an incoming req see
system.mem_ctrls.wrQLenPdf::19                      0                       # What write queue length does an incoming req see
system.mem_ctrls.wrQLenPdf::20                      0                       # What write queue length does an incoming req see
system.mem_ctrls.wrQLenPdf::21                      0                       # What write queue length does an incoming req see
system.mem_ctrls.wrQLenPdf::22                      0                       # What write queue length does an incoming req see
system.mem_ctrls.wrQLenPdf::23                      0                       # What write queue length does an incoming req see
system.mem_ctrls.wrQLenPdf::24                      0                       # What write queue length does an incoming req see
system.mem_ctrls.wrQLenPdf::25                      0                       # What write queue length does an incoming req see
system.mem_ctrls.wrQLenPdf::26                      0                       # What write queue length does an incoming req see
system.mem_ctrls.wrQLenPdf::27                      0                       # What write queue length does an incoming req see
system.mem_ctrls.wrQLenPdf::28                      0                       # What write queue length does an incoming req see
system.mem_ctrls.wrQLenPdf::29                      0                       # What write queue length does an incoming req see
system.mem_ctrls.wrQLenPdf::30                      0                       # What write queue length does an incoming req see
system.mem_ctrls.wrQLenPdf::31                      0                       # What write queue length does an incoming req see
system.mem_ctrls.wrQLenPdf::32                      0                       # What write queue length does an incoming req see
system.mem_ctrls.wrQLenPdf::33                      0                       # What write queue length does an incoming req see
system.mem_ctrls.wrQLenPdf::34                      0                       # What write queue length does an incoming req see
system.mem_ctrls.wrQLenPdf::35                      0                       # What write queue length does an incoming req see
system.mem_ctrls.wrQLenPdf::36                      0                       # What write queue length does an incoming req see
system.mem_ctrls.wrQLenPdf::37                      0                       # What write queue length does an incoming req see
system.mem_ctrls.wrQLenPdf::38                      0                       # What write queue length does an incoming req see
system.mem_ctrls.wrQLenPdf::39                      0                       # What write queue length does an incoming req see
system.mem_ctrls.wrQLenPdf::40                      0                       # What write queue length does an incoming req see
system.mem_ctrls.wrQLenPdf::41                      0                       # What write queue length does an incoming req see
system.mem_ctrls.wrQLenPdf::42                      0                       # What write queue length does an incoming req see
system.mem_ctrls.wrQLenPdf::43                      0                       # What write queue length does an incoming req see
system.mem_ctrls.wrQLenPdf::44                      0                       # What write queue length does an incoming req see
system.mem_ctrls.wrQLenPdf::45                      0                       # What write queue length does an incoming req see
system.mem_ctrls.wrQLenPdf::46                      0                       # What write queue length does an incoming req see
system.mem_ctrls.wrQLenPdf::47                      0                       # What write queue length does an incoming req see
system.mem_ctrls.wrQLenPdf::48                      0                       # What write queue length does an incoming req see
system.mem_ctrls.wrQLenPdf::49                      0                       # What write queue length does an incoming req see
system.mem_ctrls.wrQLenPdf::50                      0                       # What write queue length does an incoming req see
system.mem_ctrls.wrQLenPdf::51                      0                       # What write queue length does an incoming req see
system.mem_ctrls.wrQLenPdf::52                      0                       # What write queue length does an incoming req see
system.mem_ctrls.wrQLenPdf::53                      0                       # What write queue length does an incoming req see
system.mem_ctrls.wrQLenPdf::54                      0                       # What write queue length does an incoming req see
system.mem_ctrls.wrQLenPdf::55                      0                       # What write queue length does an incoming req see
system.mem_ctrls.wrQLenPdf::56                      0                       # What write queue length does an incoming req see
system.mem_ctrls.wrQLenPdf::57                      0                       # What write queue length does an incoming req see
system.mem_ctrls.wrQLenPdf::58                      0                       # What write queue length does an incoming req see
system.mem_ctrls.wrQLenPdf::59                      0                       # What write queue length does an incoming req see
system.mem_ctrls.wrQLenPdf::60                      0                       # What write queue length does an incoming req see
system.mem_ctrls.wrQLenPdf::61                      0                       # What write queue length does an incoming req see
system.mem_ctrls.wrQLenPdf::62                      0                       # What write queue length does an incoming req see
system.mem_ctrls.wrQLenPdf::63                      0                       # What write queue length does an incoming req see
system.mem_ctrls.totQLat                       140249                       # Total ticks spent queuing
system.mem_ctrls.totMemAccLat                  440249                       # Total ticks spent from burst creation until serviced by the DRAM
system.mem_ctrls.totBusLat                      80000                       # Total ticks spent in databus transfers
system.mem_ctrls.avgQLat                      8765.56                       # Average queueing delay per DRAM burst
system.mem_ctrls.avgBusLat                    5000.00                       # Average bus latency per DRAM burst
system.mem_ctrls.avgMemAccLat                27515.56                       # Average memory access latency per DRAM burst
system.mem_ctrls.avgRdBW                      1719.56                       # Average DRAM read bandwidth in MiByte/s
system.mem_ctrls.avgWrBW                         0.00                       # Average achieved write bandwidth in MiByte/s
system.mem_ctrls.avgRdBWSys                   1719.56                       # Average system read bandwidth in MiByte/s
system.mem_ctrls.avgWrBWSys                      0.00                       # Average system write bandwidth in MiByte/s
system.mem_ctrls.peakBW                      12800.00                       # Theoretical peak bandwidth in MiByte/s
system.mem_ctrls.busUtil                        13.43                       # Data bus utilization in percentage
system.mem_ctrls.busUtilRead                    13.43                       # Data bus utilization in percentage for reads
system.mem_ctrls.busUtilWrite                    0.00                       # Data bus utilization in percentage for writes
system.mem_ctrls.avgRdQLen                       1.56                       # Average read queue length when enqueuing
system.mem_ctrls.avgWrQLen                       0.00                       # Average write queue length when enqueuing
system.mem_ctrls.readRowHits                       12                       # Number of row buffer hits during reads
system.mem_ctrls.writeRowHits                       0                       # Number of row buffer hits during writes
system.mem_ctrls.readRowHitRate                 75.00                       # Row buffer hit rate for reads
system.mem_ctrls.writeRowHitRate                  nan                       # Row buffer hit rate for writes
system.mem_ctrls.avgGap                      33312.50                       # Average gap between requests
system.mem_ctrls.pageHitRate                    75.00                       # Row buffer hit rate, read and write combined
system.mem_ctrls_0.actEnergy                    28560                       # Energy for activate commands per rank (pJ)
system.mem_ctrls_0.preEnergy                        0                       # Energy for precharge commands per rank (pJ)
system.mem_ctrls_0.readEnergy                  114240                       # Energy for read commands per rank (pJ)
system.mem_ctrls_0.writeEnergy                      0                       # Energy for write commands per rank (pJ)
system.mem_ctrls_0.refreshEnergy                    0                       # Energy for refresh commands per rank (pJ)
system.mem_ctrls_0.actBackEnergy               151050                       # Energy for active background per rank (pJ)
system.mem_ctrls_0.preBackEnergy                 3840                       # Energy for precharge background per rank (pJ)
system.mem_ctrls_0.actPowerDownEnergy          116280                       # Energy for active power-down per rank (pJ)
system.mem_ctrls_0.prePowerDownEnergy               0                       # Energy for precharge power-down per rank (pJ)
system.mem_ctrls_0.selfRefreshEnergy                0                       # Energy for self refresh per rank (pJ)
system.mem_ctrls_0.totalEnergy                 413970                       # Total energy per rank (pJ)
system.mem_ctrls_0.averagePower            695.163728                       # Core power per rank (mW)
system.mem_ctrls_0.totalIdleTime               221500                       # Total Idle time Per DRAM Rank
system.mem_ctrls_0.memoryStateTime::IDLE         9000                       # Time in different power states
system.mem_ctrls_0.memoryStateTime::REF             0                       # Time in different power states
system.mem_ctrls_0.memoryStateTime::SREF            0                       # Time in different power states
system.mem_ctrls_0.memoryStateTime::PRE_PDN            0                       # Time in different power states
system.mem_ctrls_0.memoryStateTime::ACT        330250                       # Time in different power states
system.mem_ctrls_0.memoryStateTime::ACT_PDN       256250                       # Time in different power states
system.mem_ctrls_1.actEnergy                        0                       # Energy for activate commands per rank (pJ)
system.mem_ctrls_1.preEnergy                        0                       # Energy for precharge commands per rank (pJ)
system.mem_ctrls_1.readEnergy                       0                       # Energy for read commands per rank (pJ)
system.mem_ctrls_1.writeEnergy                      0                       # Energy for write commands per rank (pJ)
system.mem_ctrls_1.refreshEnergy                    0                       # Energy for refresh commands per rank (pJ)
system.mem_ctrls_1.actBackEnergy                    0                       # Energy for active background per rank (pJ)
system.mem_ctrls_1.preBackEnergy               228960                       # Energy for precharge background per rank (pJ)
system.mem_ctrls_1.actPowerDownEnergy               0                       # Energy for active power-down per rank (pJ)
system.mem_ctrls_1.prePowerDownEnergy               0                       # Energy for precharge power-down per rank (pJ)
system.mem_ctrls_1.selfRefreshEnergy                0                       # Energy for self refresh per rank (pJ)
system.mem_ctrls_1.totalEnergy                 228960                       # Total energy per rank (pJ)
system.mem_ctrls_1.averagePower            384.483627                       # Core power per rank (mW)
system.mem_ctrls_1.totalIdleTime                    0                       # Total Idle time Per DRAM Rank
system.mem_ctrls_1.memoryStateTime::IDLE       595500                       # Time in different power states
system.mem_ctrls_1.memoryStateTime::REF             0                       # Time in different power states
system.mem_ctrls_1.memoryStateTime::SREF            0                       # Time in different power states
system.mem_ctrls_1.memoryStateTime::PRE_PDN            0                       # Time in different power states
system.mem_ctrls_1.memoryStateTime::ACT             0                       # Time in different power states
system.mem_ctrls_1.memoryStateTime::ACT_PDN            0                       # Time in different power states
system.pwrStateResidencyTicks::UNDEFINED       595500                       # Cumulative time (in ticks) in various power states
system.cpu.branchPred.lookups                       6                       # Number of BP lookups
system.cpu.branchPred.condPredicted                 6                       # Number of conditional branches predicted
system.cpu.branchPred.condIncorrect                 1                       # Number of conditional branches incorrect
system.cpu.branchPred.BTBLookups                    0                       # Number of BTB lookups
system.cpu.branchPred.BTBHits                       0                       # Number of BTB hits
system.cpu.branchPred.BTBCorrect                    0                       # Number of correct BTB predictions (this stat may not work properly.
system.cpu.branchPred.BTBHitPct                   nan                       # BTB Hit Percentage
system.cpu.branchPred.usedRAS                       0                       # Number of times the RAS was used to get a target.
system.cpu.branchPred.RASInCorrect                  0                       # Number of incorrect RAS predictions.
system.cpu.branchPred.indirectLookups               0                       # Number of indirect predictor lookups.
system.cpu.branchPred.indirectHits                  0                       # Number of indirect target hits.
system.cpu.branchPred.indirectMisses                0                       # Number of indirect misses.
system.cpu.branchPredindirectMispredicted            0                       # Number of mispredicted indirect branches.
system.cpu_voltage_domain.voltage                   1                       # Voltage in Volts
system.cpu_clk_domain.clock                       500                       # Clock period in ticks
system.cpu.dtb.walker.pwrStateResidencyTicks::UNDEFINED       595500                       # Cumulative time (in ticks) in various power states
system.cpu.dtb.rdAccesses                          15                       # TLB accesses on read requests
system.cpu.dtb.wrAccesses                           8                       # TLB accesses on write requests
system.cpu.dtb.rdMisses                             4                       # TLB misses on read requests
system.cpu.dtb.wrMisses                             1                       # TLB misses on write requests
system.cpu.dtb.spec_tlb_misses                      0                       # TLB misses on speculative memory requests
system.cpu.apic_clk_domain.clock                 8000                       # Clock period in ticks
system.cpu.interrupts.pwrStateResidencyTicks::UNDEFINED       595500                       # Cumulative time (in ticks) in various power states
system.cpu.itb.walker.pwrStateResidencyTicks::UNDEFINED       595500                       # Cumulative time (in ticks) in various power states
system.cpu.itb.rdAccesses                           0                       # TLB accesses on read requests
system.cpu.itb.wrAccesses                          11                       # TLB accesses on write requests
system.cpu.itb.rdMisses                             0                       # TLB misses on read requests
system.cpu.itb.wrMisses                             1                       # TLB misses on write requests
system.cpu.itb.spec_tlb_misses                      0                       # TLB misses on speculative memory requests
system.cpu.workload.numSyscalls                     1                       # Number of system calls
system.cpu.pwrStateResidencyTicks::ON          595500                       # Cumulative time (in ticks) in various power states
system.cpu.numCycles                             1192                       # number of cpu cycles simulated
system.cpu.numWorkItemsStarted                      0                       # number of work items this cpu started
system.cpu.numWorkItemsCompleted                    0                       # number of work items this cpu completed
system.cpu.fetch.icacheStallCycles                428                       # Number of cycles fetch is stalled on an Icache miss
system.cpu.fetch.Insts                             99                       # Number of instructions fetch has processed
system.cpu.fetch.Branches                           6                       # Number of branches that fetch encountered
system.cpu.fetch.Cycles                            56                       # Number of cycles fetch has run and was not squashing or blocked
system.cpu.fetch.SquashCycles                       4                       # Number of cycles fetch has spent squashing
system.cpu.fetch.MiscStallCycles                    2                       # Number of cycles fetch has spent waiting on interrupts, or bad addresses, or out of MSHRs
system.cpu.fetch.IcacheWaitRetryStallCycles           50                       # Number of stall cycles due to full MSHR
system.cpu.fetch.CacheLines                        11                       # Number of cache lines fetched
system.cpu.fetch.IcacheSquashes                     2                       # Number of outstanding Icache misses that were squashed
system.cpu.fetch.rateDist::samples                538                       # Number of instructions fetched each cycle (Total)
system.cpu.fetch.rateDist::mean              0.423792                       # Number of instructions fetched each cycle (Total)
system.cpu.fetch.rateDist::stdev             1.751496                       # Number of instructions fetched each cycle (Total)
system.cpu.fetch.rateDist::underflows               0      0.00%      0.00% # Number of instructions fetched each cycle (Total)
system.cpu.fetch.rateDist::0                      505     93.87%     93.87% # Number of instructions fetched each cycle (Total)
system.cpu.fetch.rateDist::1                        3      0.56%     94.42% # Number of instructions fetched each cycle (Total)
system.cpu.fetch.rateDist::2                        1      0.19%     94.61% # Number of instructions fetched each cycle (Total)
system.cpu.fetch.rateDist::3                        0      0.00%     94.61% # Number of instructions fetched each cycle (Total)
system.cpu.fetch.rateDist::4                        1      0.19%     94.80% # Number of instructions fetched each cycle (Total)
system.cpu.fetch.rateDist::5                        0      0.00%     94.80% # Number of instructions fetched each cycle (Total)
system.cpu.fetch.rateDist::6                        2      0.37%     95.17% # Number of instructions fetched each cycle (Total)
system.cpu.fetch.rateDist::7                        1      0.19%     95.35% # Number of instructions fetched each cycle (Total)
system.cpu.fetch.rateDist::8                       25      4.65%    100.00% # Number of instructions fetched each cycle (Total)
system.cpu.fetch.rateDist::overflows                0      0.00%    100.00% # Number of instructions fetched each cycle (Total)
system.cpu.fetch.rateDist::min_value                0                       # Number of instructions fetched each cycle (Total)
system.cpu.fetch.rateDist::max_value                8                       # Number of instructions fetched each cycle (Total)
system.cpu.fetch.rateDist::total                  538                       # Number of instructions fetched each cycle (Total)
system.cpu.fetch.branchRate                  0.005034                       # Number of branch fetches per cycle
system.cpu.fetch.rate                        0.083054                       # Number of inst fetches per cycle
system.cpu.decode.IdleCycles                      202                       # Number of cycles decode is idle
system.cpu.decode.BlockedCycles                   308                       # Number of cycles decode is blocked
system.cpu.decode.RunCycles                        26                       # Number of cycles decode is running
system.cpu.decode.SquashCycles                      2                       # Number of cycles decode is squashing
system.cpu.decode.DecodedInsts                    180                       # Number of instructions handled by decode
system.cpu.rename.SquashCycles                      2                       # Number of cycles rename is squashing
system.cpu.rename.IdleCycles                      203                       # Number of cycles rename is idle
system.cpu.rename.BlockCycles                       1                       # Number of cycles rename is blocking
system.cpu.rename.serializeStallCycles            306                       # count of cycles rename stalled for serializing inst
system.cpu.rename.RunCycles                        25                       # Number of cycles rename is running
system.cpu.rename.UnblockCycles                     1                       # Number of cycles rename is unblocking
system.cpu.rename.RenamedInsts                    166                       # Number of instructions processed by rename
system.cpu.rename.RenamedOperands                 225                       # Number of destination operands rename has renamed
system.cpu.rename.RenameLookups                   402                       # Number of register rename lookups that rename has made
system.cpu.rename.int_rename_lookups              261                       # Number of integer rename lookups
system.cpu.rename.CommittedMaps                   201                       # Number of HB maps that are committed
system.cpu.rename.UndoneMaps                       24                       # Number of HB maps that are undone due to squashing
system.cpu.rename.serializingInsts                  2                       # count of serializing insts renamed
system.cpu.rename.tempSerializingInsts              2                       # count of temporary serializing insts renamed
system.cpu.rename.skidInsts                        16                       # count of insts added to the skid buffer
system.cpu.memDep0.insertedLoads                   16                       # Number of loads inserted to the mem dependence unit.
system.cpu.memDep0.insertedStores                   9                       # Number of stores inserted to the mem dependence unit.
system.cpu.memDep0.conflictingLoads                 6                       # Number of conflicting loads.
system.cpu.memDep0.conflictingStores                6                       # Number of conflicting stores.
system.cpu.iq.iqInstsAdded                        159                       # Number of instructions added to the IQ (excludes non-spec)
system.cpu.iq.iqNonSpecInstsAdded                   7                       # Number of non-speculative instructions added to the IQ
system.cpu.iq.iqInstsIssued                       157                       # Number of instructions issued
system.cpu.iq.iqSquashedInstsExamined              15                       # Number of squashed instructions iterated over during squash; mainly for profiling
system.cpu.iq.iqSquashedOperandsExamined           33                       # Number of squashed operands that are examined and possibly removed from graph
system.cpu.iq.issued_per_cycle::samples           538                       # Number of insts issued each cycle
system.cpu.iq.issued_per_cycle::mean         0.291822                       # Number of insts issued each cycle
system.cpu.iq.issued_per_cycle::stdev        0.906406                       # Number of insts issued each cycle
system.cpu.iq.issued_per_cycle::underflows            0      0.00%      0.00% # Number of insts issued each cycle
system.cpu.iq.issued_per_cycle::0                 467     86.80%     86.80% # Number of insts issued each cycle
system.cpu.iq.issued_per_cycle::1                  27      5.02%     91.82% # Number of insts issued each cycle
system.cpu.iq.issued_per_cycle::2                  24      4.46%     96.28% # Number of insts issued each cycle
system.cpu.iq.issued_per_cycle::3                   8      1.49%     97.77% # Number of insts issued each cycle
system.cpu.iq.issued_per_cycle::4                   6      1.12%     98.88% # Number of insts issued each cycle
system.cpu.iq.issued_per_cycle::5                   3      0.56%     99.44% # Number of insts issued each cycle
system.cpu.iq.issued_per_cycle::6                   2      0.37%     99.81% # Number of insts issued each cycle
system.cpu.iq.issued_per_cycle::7                   1      0.19%    100.00% # Number of insts issued each cycle
system.cpu.iq.issued_per_cycle::8                   0      0.00%    100.00% # Number of insts issued each cycle
system.cpu.iq.issued_per_cycle::overflows            0      0.00%    100.00% # Number of insts issued each cycle
system.cpu.iq.issued_per_cycle::min_value            0                       # Number of insts issued each cycle
system.cpu.iq.issued_per_cycle::max_value            7                       # Number of insts issued each cycle
system.cpu.iq.issued_per_cycle::total             538                       # Number of insts issued each cycle
system.cpu.iq.fu_full::No_OpClass                   0      0.00%      0.00% # attempts to use FU when none available
system.cpu.iq.fu_full::IntAlu                       1    100.00%    100.00% # attempts to use FU when none available
system.cpu.iq.fu_full::IntMult                      0      0.00%    100.00% # attempts to use FU when none available
system.cpu.iq.fu_full::IntDiv                       0      0.00%    100.00% # attempts to use FU when none available
system.cpu.iq.fu_full::FloatAdd                     0      0.00%    100.00% # attempts to use FU when none available
system.cpu.iq.fu_full::FloatCmp                     0      0.00%    100.00% # attempts to use FU when none available
system.cpu.iq.fu_full::FloatCvt                     0      0.00%    100.00% # attempts to use FU when none available
system.cpu.iq.fu_full::FloatMult                    0      0.00%    100.00% # attempts to use FU when none available
system.cpu.iq.fu_full::FloatMultAcc                 0      0.00%    100.00% # attempts to use FU when none available
system.cpu.iq.fu_full::FloatDiv                     0      0.00%    100.00% # attempts to use FU when none available
system.cpu.iq.fu_full::FloatMisc                    0      0.00%    100.00% # attempts to use FU when none available
system.cpu.iq.fu_full::FloatSqrt                    0      0.00%    100.00% # attempts to use FU when none available
system.cpu.iq.fu_full::SimdAdd                      0      0.00%    100.00% # attempts to use FU when none available
system.cpu.iq.fu_full::SimdAddAcc                   0      0.00%    100.00% # attempts to use FU when none available
system.cpu.iq.fu_full::SimdAlu                      0      0.00%    100.00% # attempts to use FU when none available
system.cpu.iq.fu_full::SimdCmp                      0      0.00%    100.00% # attempts to use FU when none available
system.cpu.iq.fu_full::SimdCvt                      0      0.00%    100.00% # attempts to use FU when none available
system.cpu.iq.fu_full::SimdMisc                     0      0.00%    100.00% # attempts to use FU when none available
system.cpu.iq.fu_full::SimdMult                     0      0.00%    100.00% # attempts to use FU when none available
system.cpu.iq.fu_full::SimdMultAcc                  0      0.00%    100.00% # attempts to use FU when none available
system.cpu.iq.fu_full::SimdShift                    0      0.00%    100.00% # attempts to use FU when none available
system.cpu.iq.fu_full::SimdShiftAcc                 0      0.00%    100.00% # attempts to use FU when none available
system.cpu.iq.fu_full::SimdSqrt                     0      0.00%    100.00% # attempts to use FU when none available
system.cpu.iq.fu_full::SimdFloatAdd                 0      0.00%    100.00% # attempts to use FU when none available
system.cpu.iq.fu_full::SimdFloatAlu                 0      0.00%    100.00% # attempts to use FU when none available
system.cpu.iq.fu_full::SimdFloatCmp                 0      0.00%    100.00% # attempts to use FU when none available
system.cpu.iq.fu_full::SimdFloatCvt                 0      0.00%    100.00% # attempts to use FU when none available
system.cpu.iq.fu_full::SimdFloatDiv                 0      0.00%    100.00% # attempts to use FU when none available
system.cpu.iq.fu_full::SimdFloatMisc                0      0.00%    100.00% # attempts to use FU when none available
system.cpu.iq.fu_full::SimdFloatMult                0      0.00%    100.00% # attempts to use FU when none available
system.cpu.iq.fu_full::SimdFloatMultAcc             0      0.00%    100.00% # attempts to use FU when none available
system.cpu.iq.fu_full::SimdFloatSqrt                0      0.00%    100.00% # attempts to use FU when none available
system.cpu.iq.fu_full::MemRead                      0      0.00%    100.00% # attempts to use FU when none available
system.cpu.iq.fu_full::MemWrite                     0      0.00%    100.00% # attempts to use FU when none available
system.cpu.iq.fu_full::FloatMemRead                 0      0.00%    100.00% # attempts to use FU when none available
system.cpu.iq.fu_full::FloatMemWrite                0      0.00%    100.00% # attempts to use FU when none available
system.cpu.iq.fu_full::IprAccess                    0      0.00%    100.00% # attempts to use FU when none available
system.cpu.iq.fu_full::InstPrefetch                 0      0.00%    100.00% # attempts to use FU when none available
system.cpu.iq.FU_type_0::No_OpClass                 2      1.27%      1.27% # Type of FU issued
system.cpu.iq.FU_type_0::IntAlu                   136     86.62%     87.90% # Type of FU issued
system.cpu.iq.FU_type_0::IntMult                    0      0.00%     87.90% # Type of FU issued
system.cpu.iq.FU_type_0::IntDiv                     0      0.00%     87.90% # Type of FU issued
system.cpu.iq.FU_type_0::FloatAdd                   0      0.00%     87.90% # Type of FU issued
system.cpu.iq.FU_type_0::FloatCmp                   0      0.00%     87.90% # Type of FU issued
system.cpu.iq.FU_type_0::FloatCvt                   0      0.00%     87.90% # Type of FU issued
system.cpu.iq.FU_type_0::FloatMult                  0      0.00%     87.90% # Type of FU issued
system.cpu.iq.FU_type_0::FloatMultAcc               0      0.00%     87.90% # Type of FU issued
system.cpu.iq.FU_type_0::FloatDiv                   0      0.00%     87.90% # Type of FU issued
system.cpu.iq.FU_type_0::FloatMisc                  0      0.00%     87.90% # Type of FU issued
system.cpu.iq.FU_type_0::FloatSqrt                  0      0.00%     87.90% # Type of FU issued
system.cpu.iq.FU_type_0::SimdAdd                    0      0.00%     87.90% # Type of FU issued
system.cpu.iq.FU_type_0::SimdAddAcc                 0      0.00%     87.90% # Type of FU issued
system.cpu.iq.FU_type_0::SimdAlu                    0      0.00%     87.90% # Type of FU issued
system.cpu.iq.FU_type_0::SimdCmp                    0      0.00%     87.90% # Type of FU issued
system.cpu.iq.FU_type_0::SimdCvt                    0      0.00%     87.90% # Type of FU issued
system.cpu.iq.FU_type_0::SimdMisc                   0      0.00%     87.90% # Type of FU issued
system.cpu.iq.FU_type_0::SimdMult                   0      0.00%     87.90% # Type of FU issued
system.cpu.iq.FU_type_0::SimdMultAcc                0      0.00%     87.90% # Type of FU issued
system.cpu.iq.FU_type_0::SimdShift                  0      0.00%     87.90% # Type of FU issued
system.cpu.iq.FU_type_0::SimdShiftAcc               0      0.00%     87.90% # Type of FU issued
system.cpu.iq.FU_type_0::SimdSqrt                   0      0.00%     87.90% # Type of FU issued
system.cpu.iq.FU_type_0::SimdFloatAdd               0      0.00%     87.90% # Type of FU issued
system.cpu.iq.FU_type_0::SimdFloatAlu               0      0.00%     87.90% # Type of FU issued
system.cpu.iq.FU_type_0::SimdFloatCmp               0      0.00%     87.90% # Type of FU issued
system.cpu.iq.FU_type_0::SimdFloatCvt               0      0.00%     87.90% # Type of FU issued
system.cpu.iq.FU_type_0::SimdFloatDiv               0      0.00%     87.90% # Type of FU issued
system.cpu.iq.FU_type_0::SimdFloatMisc              0      0.00%     87.90% # Type of FU issued
system.cpu.iq.FU_type_0::SimdFloatMult              0      0.00%     87.90% # Type of FU issued
system.cpu.iq.FU_type_0::SimdFloatMultAcc            0      0.00%     87.90% # Type of FU issued
system.cpu.iq.FU_type_0::SimdFloatSqrt              0      0.00%     87.90% # Type of FU issued
system.cpu.iq.FU_type_0::MemRead                   13      8.28%     96.18% # Type of FU issued
system.cpu.iq.FU_type_0::MemWrite                   6      3.82%    100.00% # Type of FU issued
system.cpu.iq.FU_type_0::FloatMemRead               0      0.00%    100.00% # Type of FU issued
system.cpu.iq.FU_type_0::FloatMemWrite              0      0.00%    100.00% # Type of FU issued
system.cpu.iq.FU_type_0::IprAccess                  0      0.00%    100.00% # Type of FU issued
system.cpu.iq.FU_type_0::InstPrefetch               0      0.00%    100.00% # Type of FU issued
system.cpu.iq.FU_type_0::total                    157                       # Type of FU issued
system.cpu.iq.rate                           0.131711                       # Inst issue rate
system.cpu.iq.fu_busy_cnt                           1                       # FU busy when requested
system.cpu.iq.fu_busy_rate                   0.006369                       # FU busy rate (busy events/executed inst)
system.cpu.iq.int_inst_queue_reads                853                       # Number of integer instruction queue reads
system.cpu.iq.int_inst_queue_writes               181                       # Number of integer instruction queue writes
system.cpu.iq.int_inst_queue_wakeup_accesses          157                       # Number of integer instruction queue wakeup accesses
system.cpu.iq.fp_inst_queue_reads                   0                       # Number of floating instruction queue reads
system.cpu.iq.fp_inst_queue_writes                  0                       # Number of floating instruction queue writes
system.cpu.iq.fp_inst_queue_wakeup_accesses            0                       # Number of floating instruction queue wakeup accesses
system.cpu.iq.vec_inst_queue_reads                  0                       # Number of vector instruction queue reads
system.cpu.iq.vec_inst_queue_writes                 0                       # Number of vector instruction queue writes
system.cpu.iq.vec_inst_queue_wakeup_accesses            0                       # Number of vector instruction queue wakeup accesses
system.cpu.iq.int_alu_accesses                    156                       # Number of integer alu accesses
system.cpu.iq.fp_alu_accesses                       0                       # Number of floating point alu accesses
system.cpu.iq.vec_alu_accesses                      0                       # Number of vector alu accesses
system.cpu.iq.instsSetReady                       157                       # Number of instructions added to ready list
system.cpu.iq.instsStalledBeforeSetReady            0                       # Number of instructions stalled before being added to ready list
system.cpu.iew.lsq.thread0.forwLoads                2                       # Number of loads that had data forwarded from stores
system.cpu.iew.lsq.thread0.taintedforwLoads            0                       # Number of tainted loads that had data forwarded from stores
system.cpu.iew.lsq.thread0.invAddrLoads             0                       # Number of loads ignored due to an invalid address
system.cpu.iew.lsq.thread0.squashedLoads            3                       # Number of loads squashed
system.cpu.iew.lsq.thread0.ignoredResponses            0                       # Number of memory responses ignored because the instruction is squashed
system.cpu.iew.lsq.thread0.memOrderViolation            0                       # Number of memory ordering violations
system.cpu.iew.lsq.thread0.squashedStores            3                       # Number of stores squashed
system.cpu.iew.lsq.thread0.invAddrSwpfs             0                       # Number of software prefetches ignored due to an invalid address
system.cpu.iew.lsq.thread0.blockedLoads             0                       # Number of blocked loads due to partial load-store forwarding
system.cpu.iew.lsq.thread0.rescheduledLoads            0                       # Number of loads that were rescheduled
system.cpu.iew.lsq.thread0.cacheBlocked             0                       # Number of times an access to memory failed due to the cache being blocked
system.cpu.iew.lsq.thread0.specBuffHits             0                       # Number of times an access hits in speculative buffer
system.cpu.iew.lsq.thread0.specBuffMisses            0                       # Number of times an access misses in speculative buffer
system.cpu.iew.lsq.thread0.numValidates             0                       # Number of validates sent to cache
system.cpu.iew.lsq.thread0.numExposes               0                       # Number of exposes sent to cache
system.cpu.iew.lsq.thread0.numConvertedExposes            0                       # Number of exposes converted from validation
system.cpu.iew.iewIdleCycles                        0                       # Number of cycles IEW is idle
system.cpu.iew.iewSquashCycles                      2                       # Number of cycles IEW is squashing
system.cpu.iew.iewBlockCycles                       1                       # Number of cycles IEW is blocking
system.cpu.iew.iewUnblockCycles                     0                       # Number of cycles IEW is unblocking
system.cpu.iew.iewDispatchedInsts                 166                       # Number of instructions dispatched to IQ
system.cpu.iew.iewDispSquashedInsts                 0                       # Number of squashed instructions skipped by dispatch
system.cpu.iew.iewDispLoadInsts                    16                       # Number of dispatched load instructions
system.cpu.iew.iewDispStoreInsts                    9                       # Number of dispatched store instructions
system.cpu.iew.iewDispNonSpecInsts                  3                       # Number of dispatched non-speculative instructions
system.cpu.iew.iewIQFullEvents                      0                       # Number of times the IQ has become full, causing a stall
system.cpu.iew.iewLSQFullEvents                     0                       # Number of times the LSQ has become full, causing a stall
system.cpu.iew.memOrderViolationEvents              0                       # Number of memory order violations
system.cpu.iew.predictedTakenIncorrect              0                       # Number of branches that were predicted taken incorrectly
system.cpu.iew.predictedNotTakenIncorrect            1                       # Number of branches that were predicted not taken incorrectly
system.cpu.iew.branchMispredicts                    1                       # Number of branch mispredicts detected at execute
system.cpu.iew.iewExecutedInsts                   157                       # Number of executed instructions
system.cpu.iew.iewExecLoadInsts                    13                       # Number of load instructions executed
system.cpu.iew.iewExecSquashedInsts                 0                       # Number of squashed instructions skipped in execute
system.cpu.iew.exec_swp                             0                       # number of swp insts executed
system.cpu.iew.exec_nop                             0                       # number of nop insts executed
system.cpu.iew.exec_refs                           19                       # number of memory reference insts executed
system.cpu.iew.exec_branches                        6                       # Number of branches executed
system.cpu.iew.exec_stores                          6                       # Number of stores executed
system.cpu.iew.exec_rate                     0.131711                       # Inst execution rate
system.cpu.iew.wb_sent                            157                       # cumulative count of insts sent to commit
system.cpu.iew.wb_count                           157                       # cumulative count of insts written-back
system.cpu.iew.wb_producers                       109                       # num instructions producing a value
system.cpu.iew.wb_consumers                       236                       # num instructions consuming a value
system.cpu.iew.wb_rate                       0.131711                       # insts written-back per cycle
system.cpu.iew.wb_fanout                     0.461864                       # average fanout of values written-back
system.cpu.commit.commitSquashedInsts              15                       # The number of squashed insts skipped by commit
system.cpu.commit.commitNonSpecStalls               7                       # The number of times commit has been forced to stall to communicate backwards
system.cpu.commit.branchMispredicts                 1                       # The number of times a branch was mispredicted
system.cpu.commit.memoryViolations                  0                       # The number of times a memory operation(load) has violation
system.cpu.commit.stalledBranchMispredicts            0                       # The number of times a branch misprediction is stalled(STT)
system.cpu.commit.stalledMemoryViolations            0                       # The number of times a memory violation is stalled(STT)
system.cpu.commit.loadHitInvalidations              0                       # The number of times a load hits a invalidation
system.cpu.commit.loadHitExternalEvictions            0                       # The number of times a load hits an external invalidation
system.cpu.commit.loadValidationFails               0                       # The number of times a load fails validation
system.cpu.commit.validationStalls                  0                       # The number of ticks the commit is stalled due to waiting for validation responses
system.cpu.commit.committed_per_cycle::samples          535                       # Number of insts commited each cycle
system.cpu.commit.committed_per_cycle::mean     0.280374                       # Number of insts commited each cycle
system.cpu.commit.committed_per_cycle::stdev     1.157894                       # Number of insts commited each cycle
system.cpu.commit.committed_per_cycle::underflows            0      0.00%      0.00% # Number of insts commited each cycle
system.cpu.commit.committed_per_cycle::0          485     90.65%     90.65% # Number of insts commited each cycle
system.cpu.commit.committed_per_cycle::1           17      3.18%     93.83% # Number of insts commited each cycle
system.cpu.commit.committed_per_cycle::2           17      3.18%     97.01% # Number of insts commited each cycle
system.cpu.commit.committed_per_cycle::3            3      0.56%     97.57% # Number of insts commited each cycle
system.cpu.commit.committed_per_cycle::4            1      0.19%     97.76% # Number of insts commited each cycle
system.cpu.commit.committed_per_cycle::5            1      0.19%     97.94% # Number of insts commited each cycle
system.cpu.commit.committed_per_cycle::6            3      0.56%     98.50% # Number of insts commited each cycle
system.cpu.commit.committed_per_cycle::7            1      0.19%     98.69% # Number of insts commited each cycle
system.cpu.commit.committed_per_cycle::8            7      1.31%    100.00% # Number of insts commited each cycle
system.cpu.commit.committed_per_cycle::overflows            0      0.00%    100.00% # Number of insts commited each cycle
system.cpu.commit.committed_per_cycle::min_value            0                       # Number of insts commited each cycle
system.cpu.commit.committed_per_cycle::max_value            8                       # Number of insts commited each cycle
system.cpu.commit.committed_per_cycle::total          535                       # Number of insts commited each cycle
system.cpu.commit.committedInsts                   71                       # Number of instructions committed
system.cpu.commit.committedOps                    150                       # Number of ops (including micro ops) committed
system.cpu.commit.swp_count                         0                       # Number of s/w prefetches committed
system.cpu.commit.refs                             19                       # Number of memory references committed
system.cpu.commit.loads                            13                       # Number of loads committed
system.cpu.commit.membars                           4                       # Number of memory barriers committed
system.cpu.commit.branches                          6                       # Number of branches committed
system.cpu.commit.vec_insts                         0                       # Number of committed Vector instructions.
system.cpu.commit.fp_insts                          0                       # Number of committed floating point instructions.
system.cpu.commit.int_insts                       143                       # Number of committed integer instructions.
system.cpu.commit.function_calls                    0                       # Number of function calls committed.
system.cpu.commit.op_class_0::No_OpClass            2      1.33%      1.33% # Class of committed instruction
system.cpu.commit.op_class_0::IntAlu              129     86.00%     87.33% # Class of committed instruction
system.cpu.commit.op_class_0::IntMult               0      0.00%     87.33% # Class of committed instruction
system.cpu.commit.op_class_0::IntDiv                0      0.00%     87.33% # Class of committed instruction
system.cpu.commit.op_class_0::FloatAdd              0      0.00%     87.33% # Class of committed instruction
system.cpu.commit.op_class_0::FloatCmp              0      0.00%     87.33% # Class of committed instruction
system.cpu.commit.op_class_0::FloatCvt              0      0.00%     87.33% # Class of committed instruction
system.cpu.commit.op_class_0::FloatMult             0      0.00%     87.33% # Class of committed instruction
system.cpu.commit.op_class_0::FloatMultAcc            0      0.00%     87.33% # Class of committed instruction
system.cpu.commit.op_class_0::FloatDiv              0      0.00%     87.33% # Class of committed instruction
system.cpu.commit.op_class_0::FloatMisc             0      0.00%     87.33% # Class of committed instruction
system.cpu.commit.op_class_0::FloatSqrt             0      0.00%     87.33% # Class of committed instruction
system.cpu.commit.op_class_0::SimdAdd               0      0.00%     87.33% # Class of committed instruction
system.cpu.commit.op_class_0::SimdAddAcc            0      0.00%     87.33% # Class of committed instruction
system.cpu.commit.op_class_0::SimdAlu               0      0.00%     87.33% # Class of committed instruction
system.cpu.commit.op_class_0::SimdCmp               0      0.00%     87.33% # Class of committed instruction
system.cpu.commit.op_class_0::SimdCvt               0      0.00%     87.33% # Class of committed instruction
system.cpu.commit.op_class_0::SimdMisc              0      0.00%     87.33% # Class of committed instruction
system.cpu.commit.op_class_0::SimdMult              0      0.00%     87.33% # Class of committed instruction
system.cpu.commit.op_class_0::SimdMultAcc            0      0.00%     87.33% # Class of committed instruction
system.cpu.commit.op_class_0::SimdShift             0      0.00%     87.33% # Class of committed instruction
system.cpu.commit.op_class_0::SimdShiftAcc            0      0.00%     87.33% # Class of committed instruction
system.cpu.commit.op_class_0::SimdSqrt              0      0.00%     87.33% # Class of committed instruction
system.cpu.commit.op_class_0::SimdFloatAdd            0      0.00%     87.33% # Class of committed instruction
system.cpu.commit.op_class_0::SimdFloatAlu            0      0.00%     87.33% # Class of committed instruction
system.cpu.commit.op_class_0::SimdFloatCmp            0      0.00%     87.33% # Class of committed instruction
system.cpu.commit.op_class_0::SimdFloatCvt            0      0.00%     87.33% # Class of committed instruction
system.cpu.commit.op_class_0::SimdFloatDiv            0      0.00%     87.33% # Class of committed instruction
system.cpu.commit.op_class_0::SimdFloatMisc            0      0.00%     87.33% # Class of committed instruction
system.cpu.commit.op_class_0::SimdFloatMult            0      0.00%     87.33% # Class of committed instruction
system.cpu.commit.op_class_0::SimdFloatMultAcc            0      0.00%     87.33% # Class of committed instruction
system.cpu.commit.op_class_0::SimdFloatSqrt            0      0.00%     87.33% # Class of committed instruction
system.cpu.commit.op_class_0::MemRead              13      8.67%     96.00% # Class of committed instruction
system.cpu.commit.op_class_0::MemWrite              6      4.00%    100.00% # Class of committed instruction
system.cpu.commit.op_class_0::FloatMemRead            0      0.00%    100.00% # Class of committed instruction
system.cpu.commit.op_class_0::FloatMemWrite            0      0.00%    100.00% # Class of committed instruction
system.cpu.commit.op_class_0::IprAccess             0      0.00%    100.00% # Class of committed instruction
system.cpu.commit.op_class_0::InstPrefetch            0      0.00%    100.00% # Class of committed instruction
system.cpu.commit.op_class_0::total               150                       # Class of committed instruction
system.cpu.commit.bw_lim_events                     7                       # number cycles where commit BW limit reached
system.cpu.rob.rob_reads                          693                       # The number of ROB reads
system.cpu.rob.rob_writes                         333                       # The number of ROB writes
system.cpu.timesIdled                              10                       # Number of times that the entire CPU went into an idle state and unscheduled itself
system.cpu.idleCycles                             654                       # Total number of cycles that the CPU has spent unscheduled due to idling
system.cpu.committedInsts                          71                       # Number of Instructions Simulated
system.cpu.committedOps                           150                       # Number of Ops (including micro ops) Simulated
system.cpu.cpi                              16.788732                       # CPI: Cycles Per Instruction
system.cpu.cpi_total                        16.788732                       # CPI: Total CPI of All Threads
system.cpu.ipc                               0.059564                       # IPC: Instructions Per Cycle
system.cpu.ipc_total                         0.059564                       # IPC: Total IPC of All Threads
system.cpu.int_regfile_reads                      241                       # number of integer regfile reads
system.cpu.int_regfile_writes                     138                       # number of integer regfile writes
system.cpu.cc_regfile_reads                       106                       # number of cc regfile reads
system.cpu.cc_regfile_writes                       75                       # number of cc regfile writes
system.cpu.misc_regfile_reads                      29                       # number of misc regfile reads
system.cpu.misc_regfile_writes                      1                       # number of misc regfile writes
system.ruby.clk_domain.clock                      500                       # Clock period in ticks
system.ruby.pwrStateResidencyTicks::UNDEFINED       595500                       # Cumulative time (in ticks) in various power states
system.ruby.delayHist::bucket_size                  1                       # delay histogram for all message
system.ruby.delayHist::max_bucket                   9                       # delay histogram for all message
system.ruby.delayHist::samples                     55                       # delay histogram for all message
system.ruby.delayHist::mean                  0.036364                       # delay histogram for all message
system.ruby.delayHist::stdev                 0.269680                       # delay histogram for all message
system.ruby.delayHist                    |          54     98.18%     98.18% |           0      0.00%     98.18% |           1      1.82%    100.00% |           0      0.00%    100.00% |           0      0.00%    100.00% |           0      0.00%    100.00% |           0      0.00%    100.00% |           0      0.00%    100.00% |           0      0.00%    100.00% |           0      0.00%    100.00% # delay histogram for all message
system.ruby.delayHist::total                       55                       # delay histogram for all message
system.ruby.outstanding_req_hist_seqr::bucket_size            1                      
system.ruby.outstanding_req_hist_seqr::max_bucket            9                      
system.ruby.outstanding_req_hist_seqr::samples           32                      
system.ruby.outstanding_req_hist_seqr::mean     2.406250                      
system.ruby.outstanding_req_hist_seqr::gmean     2.208904                      
system.ruby.outstanding_req_hist_seqr::stdev     0.979117                      
system.ruby.outstanding_req_hist_seqr    |           0      0.00%      0.00% |           5     15.62%     15.62% |          14     43.75%     59.38% |           9     28.12%     87.50% |           3      9.38%     96.88% |           1      3.12%    100.00% |           0      0.00%    100.00% |           0      0.00%    100.00% |           0      0.00%    100.00% |           0      0.00%    100.00%
system.ruby.outstanding_req_hist_seqr::total           32                      
system.ruby.latency_hist_seqr::bucket_size           16                      
system.ruby.latency_hist_seqr::max_bucket          159                      
system.ruby.latency_hist_seqr::samples             32                      
system.ruby.latency_hist_seqr::mean         64.750000                      
system.ruby.latency_hist_seqr::gmean        11.320819                      
system.ruby.latency_hist_seqr::stdev        65.121722                      
system.ruby.latency_hist_seqr            |          16     50.00%     50.00% |           0      0.00%     50.00% |           0      0.00%     50.00% |           0      0.00%     50.00% |           0      0.00%     50.00% |           0      0.00%     50.00% |           1      3.12%     53.12% |           9     28.12%     81.25% |           5     15.62%     96.88% |           1      3.12%    100.00%
system.ruby.latency_hist_seqr::total               32                      
system.ruby.hit_latency_hist_seqr::bucket_size            1                      
system.ruby.hit_latency_hist_seqr::max_bucket            9                      
system.ruby.hit_latency_hist_seqr::samples           16                      
system.ruby.hit_latency_hist_seqr::mean             1                      
system.ruby.hit_latency_hist_seqr::gmean            1                      
system.ruby.hit_latency_hist_seqr        |           0      0.00%      0.00% |          16    100.00%    100.00% |           0      0.00%    100.00% |           0      0.00%    100.00% |           0      0.00%    100.00% |           0      0.00%    100.00% |           0      0.00%    100.00% |           0      0.00%    100.00% |           0      0.00%    100.00% |           0      0.00%    100.00%
system.ruby.hit_latency_hist_seqr::total           16                      
system.ruby.miss_latency_hist_seqr::bucket_size           16                      
system.ruby.miss_latency_hist_seqr::max_bucket          159                      
system.ruby.miss_latency_hist_seqr::samples           16                      
system.ruby.miss_latency_hist_seqr::mean   128.500000                      
system.ruby.miss_latency_hist_seqr::gmean   128.160941                      
system.ruby.miss_latency_hist_seqr::stdev     9.715966                      
system.ruby.miss_latency_hist_seqr       |           0      0.00%      0.00% |           0      0.00%      0.00% |           0      0.00%      0.00% |           0      0.00%      0.00% |           0      0.00%      0.00% |           0      0.00%      0.00% |           1      6.25%      6.25% |           9     56.25%     62.50% |           5     31.25%     93.75% |           1      6.25%    100.00%
system.ruby.miss_latency_hist_seqr::total           16                      
system.ruby.dir_cntrl0.requestToDir.avg_buf_msgs     0.013434                       # Average number of messages in buffer
system.ruby.dir_cntrl0.requestToDir.avg_stall_time  3942.905218                       # Average number of cycles messages are stalled in this MB
system.ruby.dir_cntrl0.responseFromDir.avg_buf_msgs     0.013434                       # Average number of messages in buffer
system.ruby.dir_cntrl0.responseFromDir.avg_stall_time   443.325032                       # Average number of cycles messages are stalled in this MB
system.ruby.dir_cntrl0.responseFromMemory.avg_buf_msgs     0.018892                       # Average number of messages in buffer
system.ruby.dir_cntrl0.responseFromMemory.avg_stall_time   443.744847                       # Average number of cycles messages are stalled in this MB
system.ruby.dir_cntrl0.pwrStateResidencyTicks::UNDEFINED       595500                       # Cumulative time (in ticks) in various power states
system.ruby.l1_cntrl0.L1Dcache.demand_hits           14                       # Number of cache demand hits
system.ruby.l1_cntrl0.L1Dcache.demand_misses            7                       # Number of cache demand misses
system.ruby.l1_cntrl0.L1Dcache.demand_accesses           21                       # Number of cache demand accesses
system.ruby.l1_cntrl0.L1Icache.demand_hits            2                       # Number of cache demand hits
system.ruby.l1_cntrl0.L1Icache.demand_misses            9                       # Number of cache demand misses
system.ruby.l1_cntrl0.L1Icache.demand_accesses           11                       # Number of cache demand accesses
system.ruby.l1_cntrl0.mandatoryQueue.avg_buf_msgs     0.026868                       # Average number of messages in buffer
system.ruby.l1_cntrl0.mandatoryQueue.avg_stall_time   499.580185                       # Average number of cycles messages are stalled in this MB
system.ruby.l1_cntrl0.prefetcher.miss_observed            0                       # number of misses observed
system.ruby.l1_cntrl0.prefetcher.allocated_streams            0                       # number of streams allocated for prefetching
system.ruby.l1_cntrl0.prefetcher.prefetches_requested            0                       # number of prefetch requests made
system.ruby.l1_cntrl0.prefetcher.prefetches_accepted            0                       # number of prefetch requests accepted
system.ruby.l1_cntrl0.prefetcher.dropped_prefetches            0                       # number of prefetch requests dropped
system.ruby.l1_cntrl0.prefetcher.hits               0                       # number of prefetched blocks accessed
system.ruby.l1_cntrl0.prefetcher.partial_hits            0                       # number of misses observed for a block being prefetched
system.ruby.l1_cntrl0.prefetcher.pages_crossed            0                       # number of prefetches across pages
system.ruby.l1_cntrl0.prefetcher.misses_on_prefetched_blocks            0                       # number of misses for blocks that were prefetched, yet missed
system.ruby.l1_cntrl0.requestFromL1Cache.avg_buf_msgs     0.026868                       # Average number of messages in buffer
system.ruby.l1_cntrl0.requestFromL1Cache.avg_stall_time   997.481113                       # Average number of cycles messages are stalled in this MB
system.ruby.l1_cntrl0.responseToL1Cache.avg_buf_msgs     0.013434                       # Average number of messages in buffer
system.ruby.l1_cntrl0.responseToL1Cache.avg_stall_time  3065.072099                       # Average number of cycles messages are stalled in this MB
system.ruby.l1_cntrl0.sequencer.pwrStateResidencyTicks::UNDEFINED       595500                       # Cumulative time (in ticks) in various power states
system.ruby.l1_cntrl0.sequencer.load_waiting_on_load            5                       # Number of times a load aliased with a pending load
system.ruby.l1_cntrl0.unblockFromL1Cache.avg_buf_msgs     0.005877                       # Average number of messages in buffer
system.ruby.l1_cntrl0.unblockFromL1Cache.avg_stall_time   373.215998                       # Average number of cycles messages are stalled in this MB
system.ruby.l1_cntrl0.pwrStateResidencyTicks::UNDEFINED       595500                       # Cumulative time (in ticks) in various power states
system.ruby.l2_cntrl0.DirRequestFromL2Cache.avg_buf_msgs     0.026868                       # Average number of messages in buffer
system.ruby.l2_cntrl0.DirRequestFromL2Cache.avg_stall_time   990.764079                       # Average number of cycles messages are stalled in this MB
system.ruby.l2_cntrl0.L1RequestToL2Cache.avg_buf_msgs     0.013434                       # Average number of messages in buffer
system.ruby.l2_cntrl0.L1RequestToL2Cache.avg_stall_time  3979.009271                       # Average number of cycles messages are stalled in this MB
system.ruby.l2_cntrl0.L2cache.demand_hits            0                       # Number of cache demand hits
system.ruby.l2_cntrl0.L2cache.demand_misses           16                       # Number of cache demand misses
system.ruby.l2_cntrl0.L2cache.demand_accesses           16                       # Number of cache demand accesses
system.ruby.l2_cntrl0.responseFromL2Cache.avg_buf_msgs     0.031066                       # Average number of messages in buffer
system.ruby.l2_cntrl0.responseFromL2Cache.avg_stall_time   440.386330                       # Average number of cycles messages are stalled in this MB
system.ruby.l2_cntrl0.responseToL2Cache.avg_buf_msgs     0.013434                       # Average number of messages in buffer
system.ruby.l2_cntrl0.responseToL2Cache.avg_stall_time  3085.643013                       # Average number of cycles messages are stalled in this MB
system.ruby.l2_cntrl0.unblockToL2Cache.avg_buf_msgs     0.005877                       # Average number of messages in buffer
system.ruby.l2_cntrl0.unblockToL2Cache.avg_stall_time  2594.879774                       # Average number of cycles messages are stalled in this MB
system.ruby.l2_cntrl0.pwrStateResidencyTicks::UNDEFINED       595500                       # Cumulative time (in ticks) in various power states
system.ruby.memctrl_clk_domain.clock             1500                       # Clock period in ticks
system.ruby.network.routers0.port_buffers01.avg_buf_msgs     0.013434                       # Average number of messages in buffer
system.ruby.network.routers0.port_buffers01.avg_stall_time  2629.723544                       # Average number of cycles messages are stalled in this MB
system.ruby.network.routers0.port_buffers03.avg_buf_msgs     0.013434                       # Average number of messages in buffer
system.ruby.network.routers0.port_buffers03.avg_stall_time  1494.962225                       # Average number of cycles messages are stalled in this MB
[...]
system.ruby.delayVCHist.vnet_0::total              23                       # delay histogram for vnet_0
system.ruby.delayVCHist.vnet_1::bucket_size            1                       # delay histogram for vnet_1
system.ruby.delayVCHist.vnet_1::max_bucket            9                       # delay histogram for vnet_1
system.ruby.delayVCHist.vnet_1::samples            32                       # delay histogram for vnet_1
system.ruby.delayVCHist.vnet_1           |          32    100.00%    100.00% |           0      0.00%    100.00% |           0      0.00%    100.00% |           0      0.00%    100.00% |           0      0.00%    100.00% |           0      0.00%    100.00% |           0      0.00%    100.00% |           0      0.00%    100.00% |           0      0.00%    100.00% |           0      0.00%    100.00% # delay histogram for vnet_1
system.ruby.delayVCHist.vnet_1::total              32                       # delay histogram for vnet_1
system.ruby.LD.latency_hist_seqr::bucket_size           16                      
system.ruby.LD.latency_hist_seqr::max_bucket          159                      
system.ruby.LD.latency_hist_seqr::samples            6                      
system.ruby.LD.latency_hist_seqr::mean      62.500000                      
system.ruby.LD.latency_hist_seqr::gmean     11.113509                      
system.ruby.LD.latency_hist_seqr::stdev     67.910971                      
system.ruby.LD.latency_hist_seqr         |           3     50.00%     50.00% |           0      0.00%     50.00% |           0      0.00%     50.00% |           0      0.00%     50.00% |           0      0.00%     50.00% |           0      0.00%     50.00% |           1     16.67%     66.67% |           1     16.67%     83.33% |           1     16.67%    100.00% |           0      0.00%    100.00%
system.ruby.LD.latency_hist_seqr::total             6                      
system.ruby.LD.hit_latency_hist_seqr::bucket_size            1                      
system.ruby.LD.hit_latency_hist_seqr::max_bucket            9                      
system.ruby.LD.hit_latency_hist_seqr::samples            3                      
system.ruby.LD.hit_latency_hist_seqr::mean            1                      
system.ruby.LD.hit_latency_hist_seqr::gmean            1                      
system.ruby.LD.hit_latency_hist_seqr     |           0      0.00%      0.00% |           3    100.00%    100.00% |           0      0.00%    100.00% |           0      0.00%    100.00% |           0      0.00%    100.00% |           0      0.00%    100.00% |           0      0.00%    100.00% |           0      0.00%    100.00% |           0      0.00%    100.00% |           0      0.00%    100.00%
system.ruby.LD.hit_latency_hist_seqr::total            3                      
system.ruby.LD.miss_latency_hist_seqr::bucket_size           16                      
system.ruby.LD.miss_latency_hist_seqr::max_bucket          159                      
system.ruby.LD.miss_latency_hist_seqr::samples            3                      
system.ruby.LD.miss_latency_hist_seqr::mean          124                      
system.ruby.LD.miss_latency_hist_seqr::gmean   123.510077                      
system.ruby.LD.miss_latency_hist_seqr::stdev    13.527749                      
system.ruby.LD.miss_latency_hist_seqr    |           0      0.00%      0.00% |           0      0.00%      0.00% |           0      0.00%      0.00% |           0      0.00%      0.00% |           0      0.00%      0.00% |           0      0.00%      0.00% |           1     33.33%     33.33% |           1     33.33%     66.67% |           1     33.33%    100.00% |           0      0.00%    100.00%
system.ruby.LD.miss_latency_hist_seqr::total            3                      
system.ruby.ST.latency_hist_seqr::bucket_size           16                      
system.ruby.ST.latency_hist_seqr::max_bucket          159                      
system.ruby.ST.latency_hist_seqr::samples            6                      
system.ruby.ST.latency_hist_seqr::mean      24.333333                      
system.ruby.ST.latency_hist_seqr::gmean      2.281409                      
system.ruby.ST.latency_hist_seqr::stdev     57.154761                      
system.ruby.ST.latency_hist_seqr         |           5     83.33%     83.33% |           0      0.00%     83.33% |           0      0.00%     83.33% |           0      0.00%     83.33% |           0      0.00%     83.33% |           0      0.00%     83.33% |           0      0.00%     83.33% |           0      0.00%     83.33% |           1     16.67%    100.00% |           0      0.00%    100.00%
system.ruby.ST.latency_hist_seqr::total             6                      
system.ruby.ST.hit_latency_hist_seqr::bucket_size            1                      
system.ruby.ST.hit_latency_hist_seqr::max_bucket            9                      
system.ruby.ST.hit_latency_hist_seqr::samples            5                      
system.ruby.ST.hit_latency_hist_seqr::mean            1                      
system.ruby.ST.hit_latency_hist_seqr::gmean            1                      
system.ruby.ST.hit_latency_hist_seqr     |           0      0.00%      0.00% |           5    100.00%    100.00% |           0      0.00%    100.00% |           0      0.00%    100.00% |           0      0.00%    100.00% |           0      0.00%    100.00% |           0      0.00%    100.00% |           0      0.00%    100.00% |           0      0.00%    100.00% |           0      0.00%    100.00%
system.ruby.ST.hit_latency_hist_seqr::total            5                      
system.ruby.ST.miss_latency_hist_seqr::bucket_size           16                      
system.ruby.ST.miss_latency_hist_seqr::max_bucket          159                      
system.ruby.ST.miss_latency_hist_seqr::samples            1                      
system.ruby.ST.miss_latency_hist_seqr::mean          141                      
system.ruby.ST.miss_latency_hist_seqr::gmean   141.000000                      
system.ruby.ST.miss_latency_hist_seqr::stdev          nan                      
system.ruby.ST.miss_latency_hist_seqr    |           0      0.00%      0.00% |           0      0.00%      0.00% |           0      0.00%      0.00% |           0      0.00%      0.00% |           0      0.00%      0.00% |           0      0.00%      0.00% |           0      0.00%      0.00% |           0      0.00%      0.00% |           1    100.00%    100.00% |           0      0.00%    100.00%
system.ruby.ST.miss_latency_hist_seqr::total            1                      
system.ruby.IFETCH.latency_hist_seqr::bucket_size           16                      
system.ruby.IFETCH.latency_hist_seqr::max_bucket          159                      
system.ruby.IFETCH.latency_hist_seqr::samples           11                      
system.ruby.IFETCH.latency_hist_seqr::mean   103.181818                      
system.ruby.IFETCH.latency_hist_seqr::gmean    52.185181                      
system.ruby.IFETCH.latency_hist_seqr::stdev    51.062350                      
system.ruby.IFETCH.latency_hist_seqr     |           2     18.18%     18.18% |           0      0.00%     18.18% |           0      0.00%     18.18% |           0      0.00%     18.18% |           0      0.00%     18.18% |           0      0.00%     18.18% |           0      0.00%     18.18% |           8     72.73%     90.91% |           0      0.00%     90.91% |           1      9.09%    100.00%
system.ruby.IFETCH.latency_hist_seqr::total           11                      
system.ruby.IFETCH.hit_latency_hist_seqr::bucket_size            1                      
system.ruby.IFETCH.hit_latency_hist_seqr::max_bucket            9                      
system.ruby.IFETCH.hit_latency_hist_seqr::samples            2                      
system.ruby.IFETCH.hit_latency_hist_seqr::mean            1                      
system.ruby.IFETCH.hit_latency_hist_seqr::gmean            1                      
system.ruby.IFETCH.hit_latency_hist_seqr |           0      0.00%      0.00% |           2    100.00%    100.00% |           0      0.00%    100.00% |           0      0.00%    100.00% |           0      0.00%    100.00% |           0      0.00%    100.00% |           0      0.00%    100.00% |           0      0.00%    100.00% |           0      0.00%    100.00% |           0      0.00%    100.00%
system.ruby.IFETCH.hit_latency_hist_seqr::total            2                      
system.ruby.IFETCH.miss_latency_hist_seqr::bucket_size           16                      
system.ruby.IFETCH.miss_latency_hist_seqr::max_bucket          159                      
system.ruby.IFETCH.miss_latency_hist_seqr::samples            9                      
system.ruby.IFETCH.miss_latency_hist_seqr::mean   125.888889                      
system.ruby.IFETCH.miss_latency_hist_seqr::gmean   125.667899                      
system.ruby.IFETCH.miss_latency_hist_seqr::stdev     8.298260                      
system.ruby.IFETCH.miss_latency_hist_seqr |           0      0.00%      0.00% |           0      0.00%      0.00% |           0      0.00%      0.00% |           0      0.00%      0.00% |           0      0.00%      0.00% |           0      0.00%      0.00% |           0      0.00%      0.00% |           8     88.89%     88.89% |           0      0.00%     88.89% |           1     11.11%    100.00%
system.ruby.IFETCH.miss_latency_hist_seqr::total            9                      
system.ruby.RMW_Read.latency_hist_seqr::bucket_size           16                      
system.ruby.RMW_Read.latency_hist_seqr::max_bucket          159                      
system.ruby.RMW_Read.latency_hist_seqr::samples            5                      
system.ruby.RMW_Read.latency_hist_seqr::mean           55                      
system.ruby.RMW_Read.latency_hist_seqr::gmean     7.134660                      
system.ruby.RMW_Read.latency_hist_seqr::stdev    73.972968                      
system.ruby.RMW_Read.latency_hist_seqr   |           3     60.00%     60.00% |           0      0.00%     60.00% |           0      0.00%     60.00% |           0      0.00%     60.00% |           0      0.00%     60.00% |           0      0.00%     60.00% |           0      0.00%     60.00% |           0      0.00%     60.00% |           2     40.00%    100.00% |           0      0.00%    100.00%
system.ruby.RMW_Read.latency_hist_seqr::total            5                      
system.ruby.RMW_Read.hit_latency_hist_seqr::bucket_size            1                      
system.ruby.RMW_Read.hit_latency_hist_seqr::max_bucket            9                      
system.ruby.RMW_Read.hit_latency_hist_seqr::samples            3                      
system.ruby.RMW_Read.hit_latency_hist_seqr::mean            1                      
system.ruby.RMW_Read.hit_latency_hist_seqr::gmean            1                      
system.ruby.RMW_Read.hit_latency_hist_seqr |           0      0.00%      0.00% |           3    100.00%    100.00% |           0      0.00%    100.00% |           0      0.00%    100.00% |           0      0.00%    100.00% |           0      0.00%    100.00% |           0      0.00%    100.00% |           0      0.00%    100.00% |           0      0.00%    100.00% |           0      0.00%    100.00%
system.ruby.RMW_Read.hit_latency_hist_seqr::total            3                      
system.ruby.RMW_Read.miss_latency_hist_seqr::bucket_size           16                      
system.ruby.RMW_Read.miss_latency_hist_seqr::max_bucket          159                      
system.ruby.RMW_Read.miss_latency_hist_seqr::samples            2                      
system.ruby.RMW_Read.miss_latency_hist_seqr::mean          136                      
system.ruby.RMW_Read.miss_latency_hist_seqr::gmean   135.966908                      
system.ruby.RMW_Read.miss_latency_hist_seqr::stdev     4.242641                      
system.ruby.RMW_Read.miss_latency_hist_seqr |           0      0.00%      0.00% |           0      0.00%      0.00% |           0      0.00%      0.00% |           0      0.00%      0.00% |           0      0.00%      0.00% |           0      0.00%      0.00% |           0      0.00%      0.00% |           0      0.00%      0.00% |           2    100.00%    100.00% |           0      0.00%    100.00%
system.ruby.RMW_Read.miss_latency_hist_seqr::total            2                      
system.ruby.Locked_RMW_Read.latency_hist_seqr::bucket_size           16                      
system.ruby.Locked_RMW_Read.latency_hist_seqr::max_bucket          159                      
system.ruby.Locked_RMW_Read.latency_hist_seqr::samples            2                      
system.ruby.Locked_RMW_Read.latency_hist_seqr::mean    69.500000                      
system.ruby.Locked_RMW_Read.latency_hist_seqr::gmean    11.747340                      
system.ruby.Locked_RMW_Read.latency_hist_seqr::stdev    96.873629                      
system.ruby.Locked_RMW_Read.latency_hist_seqr |           1     50.00%     50.00% |           0      0.00%     50.00% |           0      0.00%     50.00% |           0      0.00%     50.00% |           0      0.00%     50.00% |           0      0.00%     50.00% |           0      0.00%     50.00% |           0      0.00%     50.00% |           1     50.00%    100.00% |           0      0.00%    100.00%
system.ruby.Locked_RMW_Read.latency_hist_seqr::total            2                      
system.ruby.Locked_RMW_Read.hit_latency_hist_seqr::bucket_size            1                      
system.ruby.Locked_RMW_Read.hit_latency_hist_seqr::max_bucket            9                      
system.ruby.Locked_RMW_Read.hit_latency_hist_seqr::samples            1                      
system.ruby.Locked_RMW_Read.hit_latency_hist_seqr::mean            1                      
system.ruby.Locked_RMW_Read.hit_latency_hist_seqr::gmean            1                      
system.ruby.Locked_RMW_Read.hit_latency_hist_seqr::stdev          nan                      
system.ruby.Locked_RMW_Read.hit_latency_hist_seqr |           0      0.00%      0.00% |           1    100.00%    100.00% |           0      0.00%    100.00% |           0      0.00%    100.00% |           0      0.00%    100.00% |           0      0.00%    100.00% |           0      0.00%    100.00% |           0      0.00%    100.00% |           0      0.00%    100.00% |           0      0.00%    100.00%
system.ruby.Locked_RMW_Read.hit_latency_hist_seqr::total            1                      
system.ruby.Locked_RMW_Read.miss_latency_hist_seqr::bucket_size           16                      
system.ruby.Locked_RMW_Read.miss_latency_hist_seqr::max_bucket          159                      
system.ruby.Locked_RMW_Read.miss_latency_hist_seqr::samples            1                      
system.ruby.Locked_RMW_Read.miss_latency_hist_seqr::mean          138                      
system.ruby.Locked_RMW_Read.miss_latency_hist_seqr::gmean   138.000000                      
system.ruby.Locked_RMW_Read.miss_latency_hist_seqr::stdev          nan                      
system.ruby.Locked_RMW_Read.miss_latency_hist_seqr |           0      0.00%      0.00% |           0      0.00%      0.00% |           0      0.00%      0.00% |           0      0.00%      0.00% |           0      0.00%      0.00% |           0      0.00%      0.00% |           0      0.00%      0.00% |           0      0.00%      0.00% |           1    100.00%    100.00% |           0      0.00%    100.00%
system.ruby.Locked_RMW_Read.miss_latency_hist_seqr::total            1                      
system.ruby.Locked_RMW_Write.latency_hist_seqr::bucket_size            1                      
system.ruby.Locked_RMW_Write.latency_hist_seqr::max_bucket            9                      
system.ruby.Locked_RMW_Write.latency_hist_seqr::samples            2                      
system.ruby.Locked_RMW_Write.latency_hist_seqr::mean            1                      
system.ruby.Locked_RMW_Write.latency_hist_seqr::gmean            1                      
system.ruby.Locked_RMW_Write.latency_hist_seqr |           0      0.00%      0.00% |           2    100.00%    100.00% |           0      0.00%    100.00% |           0      0.00%    100.00% |           0      0.00%    100.00% |           0      0.00%    100.00% |           0      0.00%    100.00% |           0      0.00%    100.00% |           0      0.00%    100.00% |           0      0.00%    100.00%
system.ruby.Locked_RMW_Write.latency_hist_seqr::total            2                      
system.ruby.Locked_RMW_Write.hit_latency_hist_seqr::bucket_size            1                      
system.ruby.Locked_RMW_Write.hit_latency_hist_seqr::max_bucket            9                      
system.ruby.Locked_RMW_Write.hit_latency_hist_seqr::samples            2                      
system.ruby.Locked_RMW_Write.hit_latency_hist_seqr::mean            1                      
system.ruby.Locked_RMW_Write.hit_latency_hist_seqr::gmean            1                      
system.ruby.Locked_RMW_Write.hit_latency_hist_seqr |           0      0.00%      0.00% |           2    100.00%    100.00% |           0      0.00%    100.00% |           0      0.00%    100.00% |           0      0.00%    100.00% |           0      0.00%    100.00% |           0      0.00%    100.00% |           0      0.00%    100.00% |           0      0.00%    100.00% |           0      0.00%    100.00%
system.ruby.Locked_RMW_Write.hit_latency_hist_seqr::total            2                      
system.ruby.Directory_Controller.Fetch             16      0.00%      0.00%
system.ruby.Directory_Controller.Memory_Data           16      0.00%      0.00%
system.ruby.Directory_Controller.I.Fetch           16      0.00%      0.00%
system.ruby.Directory_Controller.IM.Memory_Data           16      0.00%      0.00%
system.ruby.L1Cache_Controller.Load                 6      0.00%      0.00%
system.ruby.L1Cache_Controller.Ifetch              11      0.00%      0.00%
system.ruby.L1Cache_Controller.Store               15      0.00%      0.00%
system.ruby.L1Cache_Controller.Data_Exclusive            3      0.00%      0.00%
system.ruby.L1Cache_Controller.Data_all_Acks           13      0.00%      0.00%
system.ruby.L1Cache_Controller.NP.Load              3      0.00%      0.00%
system.ruby.L1Cache_Controller.NP.Ifetch            9      0.00%      0.00%
system.ruby.L1Cache_Controller.NP.Store             4      0.00%      0.00%
system.ruby.L1Cache_Controller.S.Ifetch             2      0.00%      0.00%
system.ruby.L1Cache_Controller.M.Load               3      0.00%      0.00%
system.ruby.L1Cache_Controller.M.Store             11      0.00%      0.00%
system.ruby.L1Cache_Controller.IS.Data_Exclusive            3      0.00%      0.00%
system.ruby.L1Cache_Controller.IS.Data_all_Acks            9      0.00%      0.00%
system.ruby.L1Cache_Controller.IM.Data_all_Acks            4      0.00%      0.00%
system.ruby.L2Cache_Controller.L1_GET_INSTR            9      0.00%      0.00%
system.ruby.L2Cache_Controller.L1_GETS              3      0.00%      0.00%
system.ruby.L2Cache_Controller.L1_GETX              4      0.00%      0.00%
system.ruby.L2Cache_Controller.Mem_Data            16      0.00%      0.00%
system.ruby.L2Cache_Controller.Exclusive_Unblock            7      0.00%      0.00%
system.ruby.L2Cache_Controller.NP.L1_GET_INSTR            9      0.00%      0.00%
system.ruby.L2Cache_Controller.NP.L1_GETS            3      0.00%      0.00%
system.ruby.L2Cache_Controller.NP.L1_GETX            4      0.00%      0.00%
system.ruby.L2Cache_Controller.ISS.Mem_Data            3      0.00%      0.00%
system.ruby.L2Cache_Controller.IS.Mem_Data            9      0.00%      0.00%
system.ruby.L2Cache_Controller.IM.Mem_Data            4      0.00%      0.00%
system.ruby.L2Cache_Controller.MT_MB.Exclusive_Unblock            7      0.00%      0.00%

---------- End Simulation Statistics   ----------
